/*--------------------------------*- C++ -*----------------------------------*\
| =========                 |                                                 |
| \\      /  F ield         | OpenFOAM: The Open Source CFD Toolbox           |
|  \\    /   O peration     | Version:  4.1                                   |
|   \\  /    A nd           | Web:      www.OpenFOAM.org                      |
|    \\/     M anipulation  |                                                 |
\*---------------------------------------------------------------------------*/
FoamFile
{
    version     2.0;
    format      ascii;
    class       polyBoundaryMesh;
    location    "constant/polyMesh";
    object      boundary;
}
// * * * * * * * * * * * * * * * * * * * * * * * * * * * * * * * * * * * * * //

6
(
    Face_left-anode1
    {
        type            patch;
        nFaces          23;
        startFace       1080;
    }
    Face_front2
    {
        type            patch;
        nFaces          226;
        startFace       1103;
    }
    Face_bottom3
    {
        type            patch;
        nFaces          24;
        startFace       1329;
    }
    Face_top4
    {
        type            patch;
        nFaces          24;
        startFace       1353;
    }
    Face_back5
    {
        type            patch;
        nFaces          224;
        startFace       1377;
    }
    Face_right-cathode6
    {
        type            patch;
        nFaces          23;
        startFace       1601;
    }
)

// ************************************************************************* //
