/*--------------------------------*- C++ -*----------------------------------*\
| =========                 |                                                 |
| \\      /  F ield         | OpenFOAM: The Open Source CFD Toolbox           |
|  \\    /   O peration     | Version:  4.x                                   |
|   \\  /    A nd           | Web:      www.OpenFOAM.org                      |
|    \\/     M anipulation  |                                                 |
\*---------------------------------------------------------------------------*/
FoamFile
{
    version     2.0;
    format      ascii;
    class       volScalarField;
    location    "0";
    object      epsilon;
}
// * * * * * * * * * * * * * * * * * * * * * * * * * * * * * * * * * * * * * //

dimensions      [0 2 -3 0 0 0 0];

internalField   uniform 0.01;

boundaryField
{
    //floor
    Face_bottom3
    {
        type            epsilonWallFunction;
        value           uniform 0.01;
    }
    //ceiling
    Face_top4
    {
        type            epsilonWallFunction;
        value           uniform 0.01;
    }
    //fixedWalls
    Face_left-anode1
    {
        type            epsilonWallFunction;
        value           uniform 0.01;
    }
     //fixedWalls
     Face_front2
    {
        type            epsilonWallFunction;
        value           uniform 0.01;
    }
     //fixedWalls
    Face_back5
    {
        type            epsilonWallFunction;
        value           uniform 0.01;
    }
     //fixedWalls
    Face_right-cathode6
    {
        type            epsilonWallFunction;
        value           uniform 0.01;
    }
}


// ************************************************************************* //
