/*--------------------------------*- C++ -*----------------------------------*\
| =========                 |                                                 |
| \\      /  F ield         | OpenFOAM: The Open Source CFD Toolbox           |
|  \\    /   O peration     | Version:  4.x                                   |
|   \\  /    A nd           | Web:      www.OpenFOAM.org                      |
|    \\/     M anipulation  |                                                 |
\*---------------------------------------------------------------------------*/
FoamFile
{
    version     2.0;
    format      ascii;
    class       volScalarField;
    object      p_rgh;
}
// * * * * * * * * * * * * * * * * * * * * * * * * * * * * * * * * * * * * * //

dimensions      [0 2 -2 0 0 0 0];

internalField   uniform 0;

boundaryField
{
    //floor
    Face_bottom3
    {
        type            fixedFluxPressure;
        rho             rhok;
        value           uniform 0;
    }

    //ceiling
    Face_top4
    {
        type            fixedFluxPressure;
        rho             rhok;
        value           uniform 0;
    }

    //fixedWalls
    Face_left-anode1
    {
        type            fixedFluxPressure;
        rho             rhok;
        value           uniform 0;
    }
        //fixedWalls
    Face_front2
    {
        type            fixedFluxPressure;
        rho             rhok;
        value           uniform 0;
    }
       // fixedWalls
     Face_back5
    {
        type            fixedFluxPressure;
        rho             rhok;
        value           uniform 0;
    }
        //fixedWalls
    Face_right-cathode6
    {
        type            fixedFluxPressure;
        rho             rhok;
        value           uniform 0;
    }
}

// ************************************************************************* //
