/*--------------------------------*- C++ -*----------------------------------*\
| =========                 |                                                 |
| \\      /  F ield         | OpenFOAM: The Open Source CFD Toolbox           |
|  \\    /   O peration     | Version:  dev                                   |
|   \\  /    A nd           | Web:      www.OpenFOAM.org                      |
|    \\/     M anipulation  |                                                 |
\*---------------------------------------------------------------------------*/
FoamFile
{
    version     2.0;
    format      ascii;
    class       volScalarField;
    object      qjoule;
}
// * * * * * * * * * * * * * * * * * * * * * * * * * * * * * * * * * * * * * //

dimensions      [1 -1 -3 0 0 0 0];

internalField   uniform 0;

boundaryField
{
       //floor
    Face_bottom3 
    {
        //type            fixedValue;
        //value           uniform 300;
        type            zeroGradient;
    }
    //ceiling
    Face_top4
    {
        //type            fixedValue;
        //value           uniform 300;
        type            zeroGradient;
    }
    //fixedWalls
    Face_left-anode1
    {
        type            zeroGradient;
    }
    //fixedWalls
    Face_front2
    {
        type            zeroGradient;
    }
   //fixedWalls
    Face_back5
    {
        type            zeroGradient;
    }
   //fixedWalls
    Face_right-cathode6
    {
        type            zeroGradient;
    }
}

// ************************************************************************* //
